data_image0
_chemical_formula_structural       Pt4O
_chemical_formula_sum              "Pt4 O1"
_cell_length_a       2.78549
_cell_length_b       2.78549
_cell_length_c       25.9089
_cell_angle_alpha    90
_cell_angle_beta     90
_cell_angle_gamma    90

_space_group_name_H-M_alt    "P 1"
_space_group_IT_number       1

loop_
  _space_group_symop_operation_xyz
  'x, y, z'

loop_
  _atom_site_type_symbol
  _atom_site_label
  _atom_site_symmetry_multiplicity
  _atom_site_fract_x
  _atom_site_fract_y
  _atom_site_fract_z
  _atom_site_occupancy
  Pt  Pt1       1.0  0.50000  0.50000  0.38597  1.0000
  Pt  Pt2       1.0  0.00000  0.00000  0.46199  1.0000
  Pt  Pt3       1.0  0.50000  0.50004  0.53829  1.0000
  Pt  Pt4       1.0  0.00000  0.99988  0.61690  1.0000
  O   O1        1.0  0.00000  0.50029  0.66946  1.0000
